<?xml version="1.0"?>
<!-- generated on 2016-12-10 20:34:34.850574 by $Id: randomTrips.py 16365 2014-05-13 08:50:42Z namdre $ 
  options: -n manhattan.net.xml -b 0 -e 500 -p .50000000000000000000 -o 1000_manhattan.trips.xml <doubleminus>min-distance 250 -r 1000_manhattan.rou.xml
-->
<trips>
    <trip id="0" depart="0.00" from="10/24to9/24" to="9/5to10/5" />
    <trip id="1" depart="0.50" from="7/13to7/12" to="1/27to2/27" />
    <trip id="2" depart="1.00" from="9/24to10/24" to="0/25to0/26" />
    <trip id="3" depart="1.50" from="right0to10/0" to="0/8toleft8" />
    <trip id="4" depart="2.00" from="5/15to5/16" to="4/17to4/16" />
    <trip id="5" depart="2.50" from="7/5to8/5" to="8/2to8/3" />
    <trip id="6" depart="3.00" from="5/8to5/7" to="5/30to6/30" />
    <trip id="7" depart="3.50" from="10/0to10/1" to="3/27to3/28" />
    <trip id="8" depart="4.00" from="1/5to0/5" to="2/5to3/5" />
    <trip id="9" depart="4.50" from="7/7to7/8" to="0/13to0/12" />
    <trip id="10" depart="5.00" from="0/8to0/7" to="6/7to6/8" />
    <trip id="11" depart="5.50" from="0/11to0/10" to="4/19to4/18" />
    <trip id="12" depart="6.00" from="9/19to8/19" to="2/2to2/3" />
    <trip id="13" depart="6.50" from="3/9to2/9" to="2/21to2/20" />
    <trip id="14" depart="7.00" from="2/25to1/25" to="6/22to5/22" />
    <trip id="15" depart="7.50" from="6/14to7/14" to="8/8to8/7" />
    <trip id="16" depart="8.00" from="3/30to3/29" to="0/18to1/18" />
    <trip id="17" depart="8.50" from="1/3to1/4" to="10/19to10/18" />
    <trip id="18" depart="9.00" from="3/21to4/21" to="5/12to5/13" />
    <trip id="19" depart="9.50" from="5/9to5/10" to="1/17to0/17" />
    <trip id="20" depart="10.00" from="3/30to3/29" to="3/24to3/23" />
    <trip id="21" depart="10.50" from="6/23to6/22" to="9/24to8/24" />
    <trip id="22" depart="11.00" from="2/7to2/6" to="10/14to10/13" />
    <trip id="23" depart="11.50" from="5/11to5/10" to="8/25to8/24" />
    <trip id="24" depart="12.00" from="1/0to2/0" to="1/10to1/9" />
    <trip id="25" depart="12.50" from="5/21to5/22" to="2/8to3/8" />
    <trip id="26" depart="13.00" from="10/6to9/6" to="6/15to6/16" />
    <trip id="27" depart="13.50" from="1/30to2/30" to="2/11to3/11" />
    <trip id="28" depart="14.00" from="2/12to1/12" to="7/14to7/15" />
    <trip id="29" depart="14.50" from="1/9to0/9" to="4/7to4/6" />
    <trip id="30" depart="15.00" from="2/11to3/11" to="9/10to10/10" />
    <trip id="31" depart="15.50" from="2/20to2/19" to="7/21to6/21" />
    <trip id="32" depart="16.00" from="right16to10/16" to="4/18to4/17" />
    <trip id="33" depart="16.50" from="4/18to4/17" to="9/11to8/11" />
    <trip id="34" depart="17.00" from="7/15to7/14" to="2/14to1/14" />
    <trip id="35" depart="17.50" from="1/2to2/2" to="6/19to5/19" />
    <trip id="36" depart="18.00" from="4/27to4/26" to="8/4to8/5" />
    <trip id="37" depart="18.50" from="1/11to0/11" to="6/2to5/2" />
    <trip id="38" depart="19.00" from="1/27to0/27" to="4/10to4/11" />
    <trip id="39" depart="19.50" from="0/14to1/14" to="8/10to9/10" />
    <trip id="40" depart="20.00" from="4/1to5/1" to="7/25to8/25" />
    <trip id="41" depart="20.50" from="2/5to2/6" to="2/18to3/18" />
    <trip id="42" depart="21.00" from="9/12to8/12" to="6/27to7/27" />
    <trip id="43" depart="21.50" from="2/6to1/6" to="9/28to9/27" />
    <trip id="44" depart="22.00" from="2/12to3/12" to="7/19to8/19" />
    <trip id="45" depart="22.50" from="2/13to2/14" to="1/24to1/25" />
    <trip id="46" depart="23.00" from="9/24to10/24" to="8/15to8/16" />
    <trip id="47" depart="23.50" from="0/22to0/21" to="5/26to5/25" />
    <trip id="48" depart="24.00" from="left5to0/5" to="2/12to2/13" />
    <trip id="49" depart="24.50" from="2/26to2/25" to="6/7to6/6" />
    <trip id="50" depart="25.00" from="8/24to7/24" to="4/1to4/0" />
    <trip id="51" depart="25.50" from="2/13to1/13" to="10/11to9/11" />
    <trip id="52" depart="26.00" from="0/13to0/12" to="5/24to4/24" />
    <trip id="53" depart="26.50" from="0/26to1/26" to="6/10to6/9" />
    <trip id="54" depart="27.00" from="7/26to7/25" to="5/26to6/26" />
    <trip id="55" depart="27.50" from="right3to10/3" to="2/18to3/18" />
    <trip id="56" depart="28.00" from="5/19to6/19" to="8/23to9/23" />
    <trip id="57" depart="28.50" from="1/7to1/6" to="7/29to7/28" />
    <trip id="58" depart="29.00" from="bottom9to9/0" to="7/3to6/3" />
    <trip id="59" depart="29.50" from="10/26to10/27" to="0/10toleft10" />
    <trip id="60" depart="30.00" from="6/16to7/16" to="3/29to3/30" />
    <trip id="61" depart="30.50" from="left19to0/19" to="6/26to7/26" />
    <trip id="62" depart="31.00" from="5/1to6/1" to="10/17to10/16" />
    <trip id="63" depart="31.50" from="10/28to9/28" to="9/30totop9" />
    <trip id="64" depart="32.00" from="9/25to9/26" to="7/1to8/1" />
    <trip id="65" depart="32.50" from="6/20to7/20" to="2/17to1/17" />
    <trip id="66" depart="33.00" from="8/28to8/29" to="9/30to9/29" />
    <trip id="67" depart="33.50" from="1/18to2/18" to="5/28to5/29" />
    <trip id="68" depart="34.00" from="5/13to4/13" to="7/0tobottom7" />
    <trip id="69" depart="34.50" from="left0to0/0" to="9/24to10/24" />
    <trip id="70" depart="35.00" from="top1to1/30" to="5/3to6/3" />
    <trip id="71" depart="35.50" from="5/15to5/16" to="5/22to5/21" />
    <trip id="72" depart="36.00" from="6/14to7/14" to="9/20to9/19" />
    <trip id="73" depart="36.50" from="5/16to6/16" to="4/27to4/28" />
    <trip id="74" depart="37.00" from="0/1to0/0" to="9/27to8/27" />
    <trip id="75" depart="37.50" from="8/27to8/28" to="2/18to3/18" />
    <trip id="76" depart="38.00" from="2/0to3/0" to="2/20to2/21" />
    <trip id="77" depart="38.50" from="right14to10/14" to="3/19to3/20" />
    <trip id="78" depart="39.00" from="6/11to5/11" to="5/21to5/22" />
    <trip id="79" depart="39.50" from="3/25to4/25" to="1/9to1/8" />
    <trip id="80" depart="40.00" from="1/15to0/15" to="1/0tobottom1" />
    <trip id="81" depart="40.50" from="5/2to6/2" to="0/15to1/15" />
    <trip id="82" depart="41.00" from="8/13to8/14" to="1/22to0/22" />
    <trip id="83" depart="41.50" from="8/8to7/8" to="2/15to3/15" />
    <trip id="84" depart="42.00" from="top1to1/30" to="9/22to8/22" />
    <trip id="85" depart="42.50" from="1/6to1/5" to="4/28to5/28" />
    <trip id="86" depart="43.00" from="6/5to5/5" to="10/10to10/9" />
    <trip id="87" depart="43.50" from="2/19to2/18" to="9/6to10/6" />
    <trip id="88" depart="44.00" from="2/28to2/29" to="7/9to6/9" />
    <trip id="89" depart="44.50" from="2/6to2/5" to="7/22to7/23" />
    <trip id="90" depart="45.00" from="10/29to9/29" to="6/15to6/14" />
    <trip id="91" depart="45.50" from="1/0to0/0" to="3/2to4/2" />
    <trip id="92" depart="46.00" from="4/11to5/11" to="3/23to2/23" />
    <trip id="93" depart="46.50" from="1/20to0/20" to="4/21to3/21" />
    <trip id="94" depart="47.00" from="9/15to9/16" to="6/14to6/15" />
    <trip id="95" depart="47.50" from="0/10to0/11" to="8/11to8/10" />
    <trip id="96" depart="48.00" from="left8to0/8" to="10/4toright4" />
    <trip id="97" depart="48.50" from="10/19to10/18" to="3/10to2/10" />
    <trip id="98" depart="49.00" from="2/6to2/5" to="5/23to5/22" />
    <trip id="99" depart="49.50" from="4/13to3/13" to="4/11to3/11" />
    <trip id="100" depart="50.00" from="10/21to10/22" to="3/27to3/26" />
    <trip id="101" depart="50.50" from="9/22to9/23" to="6/21to7/21" />
    <trip id="102" depart="51.00" from="8/14to8/15" to="7/11to7/12" />
    <trip id="103" depart="51.50" from="4/16to4/17" to="9/0to8/0" />
    <trip id="104" depart="52.00" from="10/21to9/21" to="9/14to9/13" />
    <trip id="105" depart="52.50" from="4/8to3/8" to="5/29to6/29" />
    <trip id="106" depart="53.00" from="0/11to0/12" to="3/8to3/9" />
    <trip id="107" depart="53.50" from="8/26to8/25" to="5/10to6/10" />
    <trip id="108" depart="54.00" from="1/5to2/5" to="7/20to7/21" />
    <trip id="109" depart="54.50" from="7/10to8/10" to="8/28to9/28" />
    <trip id="110" depart="55.00" from="9/29to10/29" to="0/29toleft29" />
    <trip id="111" depart="55.50" from="4/9to5/9" to="1/25to1/26" />
    <trip id="112" depart="56.00" from="1/25to2/25" to="5/7to4/7" />
    <trip id="113" depart="56.50" from="2/5to1/5" to="4/18to4/19" />
    <trip id="114" depart="57.00" from="left7to0/7" to="8/15to9/15" />
    <trip id="115" depart="57.50" from="4/26to4/27" to="2/22to2/23" />
    <trip id="116" depart="58.00" from="2/15to2/14" to="3/2to3/3" />
    <trip id="117" depart="58.50" from="7/11to7/12" to="6/24to6/23" />
    <trip id="118" depart="59.00" from="0/13to0/14" to="5/15to6/15" />
    <trip id="119" depart="59.50" from="3/3to3/4" to="3/8to2/8" />
    <trip id="120" depart="60.00" from="10/5to10/6" to="7/12to7/11" />
    <trip id="121" depart="60.50" from="4/21to3/21" to="3/11to3/12" />
    <trip id="122" depart="61.00" from="8/8to7/8" to="9/11to9/10" />
    <trip id="123" depart="61.50" from="8/24to8/25" to="1/2to1/3" />
    <trip id="124" depart="62.00" from="7/20to7/19" to="7/4to7/5" />
    <trip id="125" depart="62.50" from="8/17to8/18" to="7/0to8/0" />
    <trip id="126" depart="63.00" from="9/7to9/8" to="7/21to8/21" />
    <trip id="127" depart="63.50" from="3/11to4/11" to="7/22to7/23" />
    <trip id="128" depart="64.00" from="4/29to4/28" to="5/15to5/14" />
    <trip id="129" depart="64.50" from="1/6to0/6" to="0/4to0/5" />
    <trip id="130" depart="65.00" from="0/28to1/28" to="6/0to5/0" />
    <trip id="131" depart="65.50" from="0/3to1/3" to="8/7to8/8" />
    <trip id="132" depart="66.00" from="7/12to7/13" to="8/21to8/22" />
    <trip id="133" depart="66.50" from="7/28to8/28" to="3/27to3/26" />
    <trip id="134" depart="67.00" from="3/25to3/26" to="0/16to1/16" />
    <trip id="135" depart="67.50" from="2/29to3/29" to="10/24to10/23" />
    <trip id="136" depart="68.00" from="7/29to8/29" to="10/22to10/21" />
    <trip id="137" depart="68.50" from="2/10to2/11" to="2/24to1/24" />
    <trip id="138" depart="69.00" from="3/4to2/4" to="8/11to8/10" />
    <trip id="139" depart="69.50" from="9/11to8/11" to="1/12to0/12" />
    <trip id="140" depart="70.00" from="1/12to2/12" to="10/13to10/12" />
    <trip id="141" depart="70.50" from="2/14to2/13" to="6/24to6/25" />
    <trip id="142" depart="71.00" from="9/28to9/29" to="1/16to1/17" />
    <trip id="143" depart="71.50" from="bottom5to5/0" to="2/2to1/2" />
    <trip id="144" depart="72.00" from="4/19to5/19" to="10/0tobottom10" />
    <trip id="145" depart="72.50" from="6/25to6/24" to="5/19to5/20" />
    <trip id="146" depart="73.00" from="1/21to1/20" to="6/19to6/18" />
    <trip id="147" depart="73.50" from="6/24to6/25" to="0/29to1/29" />
    <trip id="148" depart="74.00" from="8/4to8/3" to="8/7to8/8" />
    <trip id="149" depart="74.50" from="7/12to7/11" to="1/1to2/1" />
    <trip id="150" depart="75.00" from="7/24to7/23" to="3/28to3/27" />
    <trip id="151" depart="75.50" from="2/7to3/7" to="10/10to10/11" />
    <trip id="152" depart="76.00" from="5/5to4/5" to="2/20to3/20" />
    <trip id="153" depart="76.50" from="4/0to4/1" to="0/7to0/6" />
    <trip id="154" depart="77.00" from="1/3to2/3" to="9/29to9/28" />
    <trip id="155" depart="77.50" from="6/8to5/8" to="1/21to2/21" />
    <trip id="156" depart="78.00" from="4/4to3/4" to="8/28to9/28" />
    <trip id="157" depart="78.50" from="2/24to1/24" to="8/18to8/17" />
    <trip id="158" depart="79.00" from="left0to0/0" to="5/26to5/27" />
    <trip id="159" depart="79.50" from="6/12to6/11" to="1/29to1/28" />
    <trip id="160" depart="80.00" from="4/11to5/11" to="6/26to5/26" />
    <trip id="161" depart="80.50" from="5/8to6/8" to="8/7to8/6" />
    <trip id="162" depart="81.00" from="7/15to6/15" to="1/6to2/6" />
    <trip id="163" depart="81.50" from="4/29to3/29" to="9/21to9/22" />
    <trip id="164" depart="82.00" from="9/28to10/28" to="10/23to9/23" />
    <trip id="165" depart="82.50" from="7/0to7/1" to="7/14to7/13" />
    <trip id="166" depart="83.00" from="3/22to3/21" to="1/27to1/28" />
    <trip id="167" depart="83.50" from="10/15to9/15" to="4/16to4/17" />
    <trip id="168" depart="84.00" from="0/2to0/3" to="2/10to2/11" />
    <trip id="169" depart="84.50" from="8/27to8/26" to="1/1to1/0" />
    <trip id="170" depart="85.00" from="10/13to10/14" to="9/19to8/19" />
    <trip id="171" depart="85.50" from="3/26to4/26" to="0/29to0/28" />
    <trip id="172" depart="86.00" from="5/27to4/27" to="8/24to8/23" />
    <trip id="173" depart="86.50" from="2/10to1/10" to="3/12to4/12" />
    <trip id="174" depart="87.00" from="10/28to10/27" to="1/1to2/1" />
    <trip id="175" depart="87.50" from="4/26to4/25" to="2/6to1/6" />
    <trip id="176" depart="88.00" from="9/16to9/15" to="6/9to7/9" />
    <trip id="177" depart="88.50" from="6/2to7/2" to="3/27to4/27" />
    <trip id="178" depart="89.00" from="top7to7/30" to="6/23to5/23" />
    <trip id="179" depart="89.50" from="5/1to6/1" to="9/29to8/29" />
    <trip id="180" depart="90.00" from="8/9to9/9" to="4/21to4/22" />
    <trip id="181" depart="90.50" from="10/9to10/8" to="9/12to9/11" />
    <trip id="182" depart="91.00" from="9/9to9/8" to="4/20to3/20" />
    <trip id="183" depart="91.50" from="10/4to10/3" to="6/30to7/30" />
    <trip id="184" depart="92.00" from="4/21to3/21" to="6/23to5/23" />
    <trip id="185" depart="92.50" from="4/24to4/25" to="5/30totop5" />
    <trip id="186" depart="93.00" from="1/15to1/14" to="3/6to3/5" />
    <trip id="187" depart="93.50" from="7/14to8/14" to="7/5to8/5" />
    <trip id="188" depart="94.00" from="0/12to1/12" to="1/21to1/20" />
    <trip id="189" depart="94.50" from="9/5to8/5" to="0/27to0/26" />
    <trip id="190" depart="95.00" from="7/29to7/30" to="10/3to10/4" />
    <trip id="191" depart="95.50" from="2/22to3/22" to="8/8to8/7" />
    <trip id="192" depart="96.00" from="8/18to8/17" to="8/9to8/8" />
    <trip id="193" depart="96.50" from="8/15to8/16" to="2/28to1/28" />
    <trip id="194" depart="97.00" from="5/2to5/3" to="4/25to4/26" />
    <trip id="195" depart="97.50" from="1/21to2/21" to="1/28to0/28" />
    <trip id="196" depart="98.00" from="2/0to1/0" to="8/25to8/24" />
    <trip id="197" depart="98.50" from="1/23to1/24" to="1/19to1/18" />
    <trip id="198" depart="99.00" from="9/2to9/3" to="2/1to3/1" />
    <trip id="199" depart="99.50" from="top0to0/30" to="1/19to2/19" />
    <trip id="200" depart="100.00" from="8/26to8/27" to="4/21to4/20" />
    <trip id="201" depart="100.50" from="3/21to3/22" to="2/13to2/12" />
    <trip id="202" depart="101.00" from="8/2to8/3" to="5/3to6/3" />
    <trip id="203" depart="101.50" from="5/8to6/8" to="6/15to5/15" />
    <trip id="204" depart="102.00" from="7/10to8/10" to="7/16to7/15" />
    <trip id="205" depart="102.50" from="10/9to10/10" to="9/0to9/1" />
    <trip id="206" depart="103.00" from="1/20to2/20" to="7/8to7/9" />
    <trip id="207" depart="103.50" from="6/26to6/25" to="9/30to9/29" />
    <trip id="208" depart="104.00" from="7/7to7/6" to="8/24to8/25" />
    <trip id="209" depart="104.50" from="8/14to8/15" to="8/8to8/7" />
    <trip id="210" depart="105.00" from="5/8to5/7" to="6/21to5/21" />
    <trip id="211" depart="105.50" from="6/3to6/4" to="8/13to7/13" />
    <trip id="212" depart="106.00" from="4/9to4/10" to="10/22to9/22" />
    <trip id="213" depart="106.50" from="2/10to1/10" to="7/1to7/0" />
    <trip id="214" depart="107.00" from="9/5to8/5" to="0/2to0/1" />
    <trip id="215" depart="107.50" from="9/14to10/14" to="0/10to0/11" />
    <trip id="216" depart="108.00" from="7/7to7/8" to="6/14to6/15" />
    <trip id="217" depart="108.50" from="5/22to5/21" to="0/9to1/9" />
    <trip id="218" depart="109.00" from="9/29to9/28" to="0/6to1/6" />
    <trip id="219" depart="109.50" from="3/6to4/6" to="9/19to9/20" />
    <trip id="220" depart="110.00" from="5/3to5/2" to="2/7to3/7" />
    <trip id="221" depart="110.50" from="2/22to2/21" to="0/30toleft30" />
    <trip id="222" depart="111.00" from="4/21to4/22" to="5/5to6/5" />
    <trip id="223" depart="111.50" from="1/9to0/9" to="3/22to3/21" />
    <trip id="224" depart="112.00" from="6/3to7/3" to="5/30to5/29" />
    <trip id="225" depart="112.50" from="8/24to7/24" to="6/27to7/27" />
    <trip id="226" depart="113.00" from="7/13to7/12" to="5/21to6/21" />
    <trip id="227" depart="113.50" from="3/1to3/0" to="6/19to6/18" />
    <trip id="228" depart="114.00" from="6/3to7/3" to="9/25to10/25" />
    <trip id="229" depart="114.50" from="3/8to3/7" to="8/21to8/22" />
    <trip id="230" depart="115.00" from="2/5to1/5" to="1/17to1/18" />
    <trip id="231" depart="115.50" from="1/14to1/15" to="0/14to0/13" />
    <trip id="232" depart="116.00" from="9/23to9/22" to="7/17to6/17" />
    <trip id="233" depart="116.50" from="2/3to1/3" to="10/27to9/27" />
    <trip id="234" depart="117.00" from="8/19to8/18" to="9/4to8/4" />
    <trip id="235" depart="117.50" from="5/15to5/16" to="6/19to6/18" />
    <trip id="236" depart="118.00" from="9/21to10/21" to="7/22to7/21" />
    <trip id="237" depart="118.50" from="10/26to10/25" to="8/0to7/0" />
    <trip id="238" depart="119.00" from="right2to10/2" to="3/22to4/22" />
    <trip id="239" depart="119.50" from="2/10to3/10" to="6/3to6/4" />
    <trip id="240" depart="120.00" from="0/6to0/7" to="2/20to2/21" />
    <trip id="241" depart="120.50" from="8/2to8/1" to="10/19to10/18" />
    <trip id="242" depart="121.00" from="6/22to6/23" to="2/17to2/18" />
    <trip id="243" depart="121.50" from="7/6to8/6" to="4/19to5/19" />
    <trip id="244" depart="122.00" from="7/18to7/17" to="8/18to9/18" />
    <trip id="245" depart="122.50" from="3/25to2/25" to="4/8to4/7" />
    <trip id="246" depart="123.00" from="4/1to4/2" to="0/22to0/21" />
    <trip id="247" depart="123.50" from="9/20to8/20" to="2/18to3/18" />
    <trip id="248" depart="124.00" from="7/20to7/21" to="7/13to8/13" />
    <trip id="249" depart="124.50" from="7/14to7/15" to="10/30to10/29" />
    <trip id="250" depart="125.00" from="right6to10/6" to="6/4to7/4" />
    <trip id="251" depart="125.50" from="3/8to2/8" to="9/7to9/6" />
    <trip id="252" depart="126.00" from="5/27to5/28" to="5/11to5/10" />
    <trip id="253" depart="126.50" from="4/13to4/12" to="6/16to7/16" />
    <trip id="254" depart="127.00" from="left17to0/17" to="5/19to5/20" />
    <trip id="255" depart="127.50" from="7/22to7/23" to="0/5to1/5" />
    <trip id="256" depart="128.00" from="9/28to9/29" to="1/20to0/20" />
    <trip id="257" depart="128.50" from="6/2to6/1" to="4/12to5/12" />
    <trip id="258" depart="129.00" from="1/19to1/20" to="2/5to2/6" />
    <trip id="259" depart="129.50" from="7/21to6/21" to="1/8to1/9" />
    <trip id="260" depart="130.00" from="7/20to7/21" to="4/11to5/11" />
    <trip id="261" depart="130.50" from="3/23to3/22" to="9/9to10/9" />
    <trip id="262" depart="131.00" from="7/17to8/17" to="8/1to8/2" />
    <trip id="263" depart="131.50" from="6/27to5/27" to="9/5to9/4" />
    <trip id="264" depart="132.00" from="9/29to9/28" to="6/17to7/17" />
    <trip id="265" depart="132.50" from="9/10to9/9" to="8/10to7/10" />
    <trip id="266" depart="133.00" from="8/7to8/8" to="7/3to7/2" />
    <trip id="267" depart="133.50" from="10/1to9/1" to="10/19to10/18" />
    <trip id="268" depart="134.00" from="2/18to2/19" to="4/29to4/30" />
    <trip id="269" depart="134.50" from="1/29to1/30" to="0/2toleft2" />
    <trip id="270" depart="135.00" from="5/6to4/6" to="10/30to9/30" />
    <trip id="271" depart="135.50" from="9/24to10/24" to="1/1to1/0" />
    <trip id="272" depart="136.00" from="8/7to8/6" to="2/25to3/25" />
    <trip id="273" depart="136.50" from="3/4to3/5" to="8/21to9/21" />
    <trip id="274" depart="137.00" from="9/8to8/8" to="6/29to5/29" />
    <trip id="275" depart="137.50" from="7/3to6/3" to="2/3to3/3" />
    <trip id="276" depart="138.00" from="2/10to2/9" to="9/3to10/3" />
    <trip id="277" depart="138.50" from="1/4to2/4" to="5/25to5/24" />
    <trip id="278" depart="139.00" from="2/14to2/13" to="9/1to9/2" />
    <trip id="279" depart="139.50" from="6/19to6/18" to="5/29to5/28" />
    <trip id="280" depart="140.00" from="7/10to6/10" to="10/19to9/19" />
    <trip id="281" depart="140.50" from="3/6to3/5" to="7/21to7/22" />
    <trip id="282" depart="141.00" from="4/11to4/10" to="7/3to6/3" />
    <trip id="283" depart="141.50" from="10/22to10/21" to="0/2to0/3" />
    <trip id="284" depart="142.00" from="8/15to8/14" to="10/1to10/0" />
    <trip id="285" depart="142.50" from="8/19to9/19" to="9/13to9/14" />
    <trip id="286" depart="143.00" from="3/1to2/1" to="8/13to9/13" />
    <trip id="287" depart="143.50" from="3/16to4/16" to="9/9to9/8" />
    <trip id="288" depart="144.00" from="6/22to7/22" to="1/8to2/8" />
    <trip id="289" depart="144.50" from="2/14to1/14" to="3/8to2/8" />
    <trip id="290" depart="145.00" from="0/24to1/24" to="8/22to8/23" />
    <trip id="291" depart="145.50" from="8/1to7/1" to="4/26to3/26" />
    <trip id="292" depart="146.00" from="7/20to7/21" to="4/1to3/1" />
    <trip id="293" depart="146.50" from="6/3to5/3" to="9/29to8/29" />
    <trip id="294" depart="147.00" from="2/27to2/28" to="8/26to7/26" />
    <trip id="295" depart="147.50" from="1/6to0/6" to="1/21to1/20" />
    <trip id="296" depart="148.00" from="4/28to3/28" to="3/7to3/8" />
    <trip id="297" depart="148.50" from="9/21to9/22" to="0/8to1/8" />
    <trip id="298" depart="149.00" from="9/6to9/7" to="3/14to3/13" />
    <trip id="299" depart="149.50" from="left9to0/9" to="8/29to9/29" />
    <trip id="300" depart="150.00" from="left4to0/4" to="1/6to2/6" />
    <trip id="301" depart="150.50" from="4/8to3/8" to="10/21to9/21" />
    <trip id="302" depart="151.00" from="5/15to5/14" to="7/21to6/21" />
    <trip id="303" depart="151.50" from="2/15to2/14" to="7/7to8/7" />
    <trip id="304" depart="152.00" from="1/30to0/30" to="0/28to0/29" />
    <trip id="305" depart="152.50" from="0/23to0/24" to="2/16to3/16" />
    <trip id="306" depart="153.00" from="0/11to0/10" to="3/5to4/5" />
    <trip id="307" depart="153.50" from="5/11to5/10" to="7/7to6/7" />
    <trip id="308" depart="154.00" from="7/8to8/8" to="1/22to1/21" />
    <trip id="309" depart="154.50" from="4/21to4/20" to="9/2to8/2" />
    <trip id="310" depart="155.00" from="8/2to7/2" to="5/12to5/11" />
    <trip id="311" depart="155.50" from="8/29to7/29" to="2/14to2/15" />
    <trip id="312" depart="156.00" from="9/1to8/1" to="2/22to1/22" />
    <trip id="313" depart="156.50" from="0/7to1/7" to="8/30totop8" />
    <trip id="314" depart="157.00" from="7/11to7/12" to="6/9to5/9" />
    <trip id="315" depart="157.50" from="4/26to3/26" to="6/7to6/8" />
    <trip id="316" depart="158.00" from="3/3to2/3" to="7/3to7/2" />
    <trip id="317" depart="158.50" from="2/23to3/23" to="7/25to8/25" />
    <trip id="318" depart="159.00" from="1/2to1/1" to="6/21to6/20" />
    <trip id="319" depart="159.50" from="1/22to1/21" to="9/26to8/26" />
    <trip id="320" depart="160.00" from="4/13to3/13" to="4/10to5/10" />
    <trip id="321" depart="160.50" from="0/21to0/20" to="10/1to10/0" />
    <trip id="322" depart="161.00" from="0/13to0/14" to="1/14to1/13" />
    <trip id="323" depart="161.50" from="3/29to3/28" to="2/13to1/13" />
    <trip id="324" depart="162.00" from="4/21to5/21" to="8/24to7/24" />
    <trip id="325" depart="162.50" from="5/14to6/14" to="9/21to9/20" />
    <trip id="326" depart="163.00" from="0/24to0/23" to="4/17to4/18" />
    <trip id="327" depart="163.50" from="4/4to3/4" to="2/16to2/15" />
    <trip id="328" depart="164.00" from="4/7to5/7" to="9/7to9/8" />
    <trip id="329" depart="164.50" from="7/10to8/10" to="0/16to0/17" />
    <trip id="330" depart="165.00" from="1/27to1/26" to="6/27to5/27" />
    <trip id="331" depart="165.50" from="1/29to1/28" to="10/26to10/25" />
    <trip id="332" depart="166.00" from="1/23to2/23" to="0/30toleft30" />
    <trip id="333" depart="166.50" from="2/13to1/13" to="6/19to6/18" />
    <trip id="334" depart="167.00" from="9/20to10/20" to="6/26to7/26" />
    <trip id="335" depart="167.50" from="5/17to6/17" to="9/7to10/7" />
    <trip id="336" depart="168.00" from="1/3to1/2" to="8/29to8/30" />
    <trip id="337" depart="168.50" from="8/18to8/19" to="4/8to4/7" />
    <trip id="338" depart="169.00" from="2/7to1/7" to="5/17to6/17" />
    <trip id="339" depart="169.50" from="8/24to8/23" to="9/0to9/1" />
    <trip id="340" depart="170.00" from="1/19to1/20" to="5/13to5/12" />
    <trip id="341" depart="170.50" from="10/3to10/2" to="9/28to8/28" />
    <trip id="342" depart="171.00" from="top6to6/30" to="10/10to10/11" />
    <trip id="343" depart="171.50" from="4/28to5/28" to="3/15to2/15" />
    <trip id="344" depart="172.00" from="8/19to7/19" to="1/8to0/8" />
    <trip id="345" depart="172.50" from="7/0to7/1" to="2/12to3/12" />
    <trip id="346" depart="173.00" from="4/20to5/20" to="10/15to10/16" />
    <trip id="347" depart="173.50" from="6/28to5/28" to="0/30to1/30" />
    <trip id="348" depart="174.00" from="3/7to4/7" to="0/23to1/23" />
    <trip id="349" depart="174.50" from="7/20to8/20" to="8/3to7/3" />
    <trip id="350" depart="175.00" from="7/26to7/25" to="0/15toleft15" />
    <trip id="351" depart="175.50" from="9/9to9/10" to="1/23to1/22" />
    <trip id="352" depart="176.00" from="3/17to4/17" to="5/14to5/13" />
    <trip id="353" depart="176.50" from="10/10to10/11" to="2/15to2/16" />
    <trip id="354" depart="177.00" from="6/12to5/12" to="3/5to4/5" />
    <trip id="355" depart="177.50" from="8/13to7/13" to="1/13to0/13" />
    <trip id="356" depart="178.00" from="3/27to4/27" to="0/6to1/6" />
    <trip id="357" depart="178.50" from="2/13to2/12" to="2/27to1/27" />
    <trip id="358" depart="179.00" from="0/0to1/0" to="10/13to10/14" />
    <trip id="359" depart="179.50" from="7/9to8/9" to="7/3to6/3" />
    <trip id="360" depart="180.00" from="0/23to0/22" to="3/29to2/29" />
    <trip id="361" depart="180.50" from="10/28to10/27" to="0/25to1/25" />
    <trip id="362" depart="181.00" from="4/7to4/8" to="10/14toright14" />
    <trip id="363" depart="181.50" from="4/12to3/12" to="10/28toright28" />
    <trip id="364" depart="182.00" from="9/9to9/10" to="2/25to1/25" />
    <trip id="365" depart="182.50" from="3/26to3/27" to="5/25to6/25" />
    <trip id="366" depart="183.00" from="4/27to3/27" to="3/4to4/4" />
    <trip id="367" depart="183.50" from="7/5to7/4" to="4/23to4/24" />
    <trip id="368" depart="184.00" from="6/2to6/3" to="1/3to2/3" />
    <trip id="369" depart="184.50" from="2/29to1/29" to="3/5to3/6" />
    <trip id="370" depart="185.00" from="4/14to3/14" to="2/4to1/4" />
    <trip id="371" depart="185.50" from="6/21to6/20" to="8/25to9/25" />
    <trip id="372" depart="186.00" from="left16to0/16" to="9/29to8/29" />
    <trip id="373" depart="186.50" from="6/2to5/2" to="2/29to2/30" />
    <trip id="374" depart="187.00" from="2/4to2/5" to="9/17to9/16" />
    <trip id="375" depart="187.50" from="10/29to10/28" to="1/0to2/0" />
    <trip id="376" depart="188.00" from="bottom0to0/0" to="4/6to5/6" />
    <trip id="377" depart="188.50" from="6/27to5/27" to="5/8to5/7" />
    <trip id="378" depart="189.00" from="2/22to2/23" to="4/9to5/9" />
    <trip id="379" depart="189.50" from="0/23to0/22" to="10/0toright0" />
    <trip id="380" depart="190.00" from="1/9to1/8" to="7/30to8/30" />
    <trip id="381" depart="190.50" from="8/1to7/1" to="9/7to9/8" />
    <trip id="382" depart="191.00" from="3/7to3/6" to="3/27to2/27" />
    <trip id="383" depart="191.50" from="7/14to8/14" to="0/20to0/21" />
    <trip id="384" depart="192.00" from="2/11to2/12" to="8/7to9/7" />
    <trip id="385" depart="192.50" from="10/11to10/12" to="0/21toleft21" />
    <trip id="386" depart="193.00" from="0/10to0/11" to="9/9to9/10" />
    <trip id="387" depart="193.50" from="10/4to10/3" to="4/8to3/8" />
    <trip id="388" depart="194.00" from="5/2to4/2" to="10/15to9/15" />
    <trip id="389" depart="194.50" from="6/6to5/6" to="6/28to7/28" />
    <trip id="390" depart="195.00" from="3/30to4/30" to="7/15to7/16" />
    <trip id="391" depart="195.50" from="8/5to7/5" to="10/17to10/18" />
    <trip id="392" depart="196.00" from="7/26to8/26" to="6/4to5/4" />
    <trip id="393" depart="196.50" from="8/20to8/21" to="2/9to2/8" />
    <trip id="394" depart="197.00" from="2/20to3/20" to="0/5to0/4" />
    <trip id="395" depart="197.50" from="3/29to4/29" to="10/23to10/22" />
    <trip id="396" depart="198.00" from="10/17to9/17" to="9/27to9/28" />
    <trip id="397" depart="198.50" from="5/7to5/6" to="1/22to2/22" />
    <trip id="398" depart="199.00" from="3/29to3/28" to="1/1to1/0" />
    <trip id="399" depart="199.50" from="2/9to1/9" to="0/6to0/5" />
    <trip id="400" depart="200.00" from="7/0to7/1" to="1/17to2/17" />
    <trip id="401" depart="200.50" from="7/12to8/12" to="9/23to10/23" />
    <trip id="402" depart="201.00" from="right6to10/6" to="4/21to3/21" />
    <trip id="403" depart="201.50" from="7/10to7/11" to="2/29to3/29" />
    <trip id="404" depart="202.00" from="top5to5/30" to="8/10to8/9" />
    <trip id="405" depart="202.50" from="7/13to8/13" to="8/22to9/22" />
    <trip id="406" depart="203.00" from="1/5to0/5" to="9/13to8/13" />
    <trip id="407" depart="203.50" from="0/6to0/7" to="8/25to9/25" />
    <trip id="408" depart="204.00" from="10/22to10/23" to="5/26to4/26" />
    <trip id="409" depart="204.50" from="6/12to7/12" to="10/23to10/24" />
    <trip id="410" depart="205.00" from="9/8to10/8" to="4/27to3/27" />
    <trip id="411" depart="205.50" from="6/17to6/16" to="7/8to8/8" />
    <trip id="412" depart="206.00" from="3/9to3/8" to="8/10to8/11" />
    <trip id="413" depart="206.50" from="9/7to9/6" to="5/17to5/18" />
    <trip id="414" depart="207.00" from="7/27to7/26" to="6/10to6/9" />
    <trip id="415" depart="207.50" from="2/13to1/13" to="5/23to6/23" />
    <trip id="416" depart="208.00" from="6/6to5/6" to="10/11to9/11" />
    <trip id="417" depart="208.50" from="10/7to10/8" to="6/30to7/30" />
    <trip id="418" depart="209.00" from="left0to0/0" to="0/28to0/29" />
    <trip id="419" depart="209.50" from="6/5to6/6" to="0/28to1/28" />
    <trip id="420" depart="210.00" from="8/4to9/4" to="5/8to6/8" />